XFLR5 v6.02 Beta

 Calculated polar for: NACA 642A015

 1 1 Reynolds number fixed          Mach number fixed         

 xtrf =   1.000 (top)        1.000 (bottom)
 Mach =   0.140     Re =     0.700 e 6     Ncrit =   9.000

  alpha     CL        CD       CDp       CM    Top Xtr Bot Xtr   Cpmin    Chinge    XCp    
 ------- -------- --------- --------- -------- ------- ------- -------- --------- ---------
  -2.000  -0.2276   0.00704   0.00198   0.0007  0.7201  0.6166  -0.6097   0.0000   0.2475
  -1.000  -0.1142   0.00694   0.00186   0.0005  0.6929  0.6442  -0.5126   0.0000   0.2487
   0.000   0.0000   0.00691   0.00181  -0.0000  0.6678  0.6676  -0.4555   0.0000   1.9687
   1.000   0.1141   0.00693   0.00187  -0.0005  0.6442  0.6931  -0.5125   0.0000   0.2486
   2.000   0.2277   0.00700   0.00199  -0.0007  0.6168  0.7204  -0.6100   0.0000   0.2476
   3.000   0.3391   0.00710   0.00211  -0.0005  0.5716  0.7491  -0.9394   0.0000   0.2455
   4.000   0.4491   0.00730   0.00239   0.0000  0.5206  0.7798  -1.4642   0.0000   0.2435
   5.000   0.5430   0.00877   0.00315   0.0029  0.2969  0.8156  -2.0078   0.0000   0.2375
   6.000   0.6255   0.01126   0.00477   0.0070  0.0780  0.8604  -2.5563   0.0000   0.2307
   7.000   0.7155   0.01272   0.00626   0.0108  0.0385  0.9230  -3.1531   0.0000   0.2260
   8.000   0.8251   0.01474   0.00838   0.0098  0.0261  0.9821  -3.8665   0.0000   0.2282
   9.000   0.9220   0.01721   0.01093   0.0100  0.0214  1.0000  -4.6128   0.0000   0.2281
  10.000   0.9745   0.01944   0.01327   0.0187  0.0190  1.0000  -5.2499   0.0000   0.2184
  11.000   1.0245   0.02327   0.01734   0.0250  0.0178  1.0000  -5.8520   0.0000   0.2118
  12.000   1.0745   0.02786   0.02221   0.0293  0.0168  1.0000  -6.4683   0.0000   0.2073
  13.000   1.1159   0.03357   0.02821   0.0326  0.0160  1.0000  -7.0691   0.0000   0.2036
  14.000   1.1362   0.04177   0.03676   0.0357  0.0154  1.0000  -7.6521   0.0000   0.1995
  15.000   1.1374   0.05248   0.04806   0.0360  0.0151  1.0000  -8.2176   0.0000   0.1972


